#       
#       
#       This file was generated by PRODRG version AA180301.0717
#       PRODRG written/copyrighted by Daan van Aalten
#       and Alexander Schuettelkopf
#       
#       Questions/comments to dava@davapc1.bioch.dundee.ac.uk
#       
#       When using this software in a publication, cite:
#       A. W. Schuettelkopf and D. M. F. van Aalten (2004).
#       PRODRG - a tool for high-throughput crystallography
#       of protein-ligand complexes.
#       Acta Crystallogr. D60, 1355--1363.
#       
#       
@<TRIPOS>MOLECULE
UNK  
   70   69    1
SMALL
USER_CHARGES

PRODRG MOLECULE
@<TRIPOS>ATOM
     1  O7         32.830    14.340    91.670   O.co2     1 UNK      -0.360
     2  C20        32.590    14.940    90.600   C.2       1 UNK       0.720
     3  O8         33.160    15.980    90.200   O.co2     1 UNK      -0.360
     4  C17        31.460    14.380    89.710   C.3       1 UNK       0.000
     5  H17        31.342    13.319    89.928   H         1 UNK       0.000
     6  C19        30.180    15.110    90.120   C.3       1 UNK       0.000
     7  H9Q        29.993    14.948    91.182   H         1 UNK       0.000
     8  H9R        29.341    14.725    89.540   H         1 UNK       0.000
     9  H19        30.369    16.161    89.902   H         1 UNK       0.000
    10  N5         31.790    14.550    88.270   N.am      1 UNK      -0.280
    11  H5         32.450    15.270    88.040   H         1 UNK       0.280
    12  C13        31.370    13.860    87.190   C.2       1 UNK       0.380
    13  O4         31.960    14.040    86.130   O.2       1 UNK      -0.380
    14  C10        30.250    12.790    87.210   C.3       1 UNK       0.000
    15  H10        30.007    12.605    86.164   H         1 UNK       0.000
    16  C12        30.790    11.460    87.750   C.3       1 UNK       0.000
    17  H9M        31.733    11.223    87.257   H         1 UNK       0.000
    18  H9N        30.068    10.668    87.552   H         1 UNK       0.000
    19  H12        30.926    11.621    88.819   H         1 UNK       0.000
    20  N2         28.970    13.110    87.880   N.am      1 UNK      -0.280
    21  H23        28.670    12.500    88.610   H         1 UNK       0.280
    22  C5         28.120    14.110    87.580   C.2       1 UNK       0.380
    23  O1         27.170    14.320    88.330   O.2       1 UNK      -0.380
    24  C1         28.460    15.120    86.460   C.3       1 UNK       0.000
    25  H1         29.190    14.662    85.793   H         1 UNK       0.000
    26  C2         27.200    15.450    85.650   C.3       1 UNK       0.000
    27  H21        26.570    16.111    86.245   H         1 UNK       0.000
    28  H22        26.728    14.497    85.409   H         1 UNK       0.000
    29  C3         27.500    16.140    84.310   C.3       1 UNK       0.000
    30  H31        26.675    15.952    83.623   H         1 UNK       0.000
    31  H32        28.459    15.752    83.966   H         1 UNK       0.000
    32  C4         27.670    17.650    84.480   C.3       1 UNK       0.000
    33  H41        28.417    17.848    85.249   H         1 UNK       0.000
    34  H42        26.684    18.061    84.695   H         1 UNK       0.000
    35  C11        28.130    18.260    83.150   C.3       1 UNK       0.000
    36  H11        29.096    17.812    82.918   H         1 UNK       0.000
    37  H9L        27.368    18.080    82.391   H         1 UNK       0.000
    38  N4         28.340    19.710    83.290   N.4       1 UNK      -0.744
    39  H44        28.700    20.070    82.430   H         1 UNK       0.248
    40  H45        29.020    19.880    84.000   H         1 UNK       0.248
    41  H43        27.480    20.160    83.510   H         1 UNK       0.248
    42  N1         29.060    16.320    87.090   N.am      1 UNK      -0.280
    43  H13        28.530    16.780    87.800   H         1 UNK       0.280
    44  C8         30.210    16.850    86.670   C.2       1 UNK       0.380
    45  O2         30.730    16.600    85.580   O.2       1 UNK      -0.380
    46  C6         30.900    17.830    87.620   C.3       1 UNK       0.000
    47  H61        30.602    17.544    88.628   H         1 UNK       0.000
    48  H62        31.975    17.768    87.453   H         1 UNK       0.000
    49  C7         30.470    19.290    87.440   C.3       1 UNK       0.000
    50  H71        29.549    19.471    87.993   H         1 UNK       0.000
    51  H72        30.397    19.473    86.368   H         1 UNK       0.000
    52  C9         31.590    20.210    87.980   C.3       1 UNK       0.000
    53  H9         32.499    19.945    87.440   H         1 UNK       0.000
    54  C14        31.890    20.000    89.480   C.2       1 UNK       0.720
    55  O5         30.910    19.940    90.260   O.co2     1 UNK      -0.360
    56  O3         33.090    20.080    89.820   O.co2     1 UNK      -0.360
    57  N3         31.310    21.640    87.700   N.am      1 UNK      -0.280
    58  H33        31.170    22.270    88.470   H         1 UNK       0.280
    59  C15        31.260    22.190    86.470   C.2       1 UNK       0.380
    60  O6         31.120    21.520    85.440   O.2       1 UNK      -0.380
    61  C16        31.160    23.730    86.440   C.3       1 UNK       0.000
    62  H16        30.165    23.988    86.077   H         1 UNK       0.000
    63  C18        32.180    24.290    85.440   C.3       1 UNK       0.000
    64  H9O        32.051    23.799    84.475   H         1 UNK       0.000
    65  H9P        33.189    24.106    85.809   H         1 UNK       0.000
    66  H18        31.964    25.357    85.380   H         1 UNK       0.000
    67  N6         31.380    24.430    87.730   N.4       1 UNK      -0.744
    68  H64        32.250    24.150    88.150   H         1 UNK       0.248
    69  H65        30.630    24.230    88.360   H         1 UNK       0.248
    70  H63        31.410    25.420    87.570   H         1 UNK       0.248
@<TRIPOS>BOND
    1    2    1 2 
    2    2    3 2 
    3    4    2 1 
    4    4    5 1 
    5    4    6 1 
    6    4   10 1 
    7    6    7 1 
    8    6    8 1 
    9    6    9 1 
   10   10   11 1 
   11   12   10 am
   12   12   13 2 
   13   14   12 1 
   14   14   15 1 
   15   14   16 1 
   16   14   20 1 
   17   16   17 1 
   18   16   18 1 
   19   16   19 1 
   20   20   21 1 
   21   22   20 am
   22   22   23 2 
   23   24   22 1 
   24   24   25 1 
   25   24   26 1 
   26   24   42 1 
   27   26   27 1 
   28   26   28 1 
   29   26   29 1 
   30   29   30 1 
   31   29   31 1 
   32   29   32 1 
   33   32   33 1 
   34   32   34 1 
   35   32   35 1 
   36   35   36 1 
   37   35   37 1 
   38   35   38 1 
   39   38   39 1 
   40   38   40 1 
   41   38   41 1 
   42   42   43 1 
   43   44   42 am
   44   44   45 2 
   45   44   46 1 
   46   46   47 1 
   47   46   48 1 
   48   46   49 1 
   49   49   50 1 
   50   49   51 1 
   51   52   49 1 
   52   52   53 1 
   53   52   54 1 
   54   52   57 1 
   55   54   55 2 
   56   54   56 2 
   57   57   58 1 
   58   59   57 am
   59   59   60 2 
   60   61   59 1 
   61   61   62 1 
   62   61   63 1 
   63   61   67 1 
   64   63   64 1 
   65   63   65 1 
   66   63   66 1 
   67   67   68 1 
   68   67   69 1 
   69   67   70 1 
@<TRIPOS>SUBSTRUCTURE
  1  UNK    1  
