#       
#       
#       This file was generated by PRODRG version AA180301.0717
#       PRODRG written/copyrighted by Daan van Aalten
#       and Alexander Schuettelkopf
#       
#       Questions/comments to dava@davapc1.bioch.dundee.ac.uk
#       
#       When using this software in a publication, cite:
#       A. W. Schuettelkopf and D. M. F. van Aalten (2004).
#       PRODRG - a tool for high-throughput crystallography
#       of protein-ligand complexes.
#       Acta Crystallogr. D60, 1355--1363.
#       
#       
@<TRIPOS>MOLECULE
UNK  
   44   43    1
SMALL
USER_CHARGES

PRODRG MOLECULE
@<TRIPOS>ATOM
     1  O7         32.830    14.340    91.670   O.co2     1 UNK      -0.360
     2  C20        32.590    14.940    90.600   C.2       1 UNK       0.720
     3  O8         33.160    15.980    90.200   O.co2     1 UNK      -0.360
     4  C17        31.460    14.380    89.710   C.3       1 UNK       0.000
     5  C19        30.180    15.110    90.120   C.3       1 UNK       0.000
     6  N5         31.790    14.550    88.270   N.am      1 UNK      -0.280
     7  H5         32.450    15.270    88.040   H         1 UNK       0.280
     8  C13        31.370    13.860    87.190   C.2       1 UNK       0.380
     9  O4         31.960    14.040    86.130   O.2       1 UNK      -0.380
    10  C10        30.250    12.790    87.210   C.3       1 UNK       0.000
    11  C12        30.790    11.460    87.750   C.3       1 UNK       0.000
    12  N2         28.970    13.110    87.880   N.am      1 UNK      -0.280
    13  H23        28.670    12.500    88.610   H         1 UNK       0.280
    14  C5         28.120    14.110    87.580   C.2       1 UNK       0.380
    15  O1         27.170    14.320    88.330   O.2       1 UNK      -0.380
    16  C1         28.460    15.120    86.460   C.3       1 UNK       0.000
    17  C2         27.200    15.450    85.650   C.3       1 UNK       0.000
    18  C3         27.500    16.140    84.310   C.3       1 UNK       0.000
    19  C4         27.670    17.650    84.480   C.3       1 UNK       0.000
    20  C11        28.130    18.260    83.150   C.3       1 UNK       0.000
    21  N4         28.340    19.710    83.290   N.4       1 UNK      -0.744
    22  H44        28.700    20.070    82.430   H         1 UNK       0.248
    23  H45        29.020    19.880    84.000   H         1 UNK       0.248
    24  H43        27.480    20.160    83.510   H         1 UNK       0.248
    25  N1         29.060    16.320    87.090   N.am      1 UNK      -0.280
    26  H13        28.530    16.780    87.800   H         1 UNK       0.280
    27  C8         30.210    16.850    86.670   C.2       1 UNK       0.380
    28  O2         30.730    16.600    85.580   O.2       1 UNK      -0.380
    29  C6         30.900    17.830    87.620   C.3       1 UNK       0.000
    30  C7         30.470    19.290    87.440   C.3       1 UNK       0.000
    31  C9         31.590    20.210    87.980   C.3       1 UNK       0.000
    32  C14        31.890    20.000    89.480   C.2       1 UNK       0.720
    33  O5         30.910    19.940    90.260   O.co2     1 UNK      -0.360
    34  O3         33.090    20.080    89.820   O.co2     1 UNK      -0.360
    35  N3         31.310    21.640    87.700   N.am      1 UNK      -0.280
    36  H33        31.170    22.270    88.470   H         1 UNK       0.280
    37  C15        31.260    22.190    86.470   C.2       1 UNK       0.380
    38  O6         31.120    21.520    85.440   O.2       1 UNK      -0.380
    39  C16        31.160    23.730    86.440   C.3       1 UNK       0.000
    40  C18        32.180    24.290    85.440   C.3       1 UNK       0.000
    41  N6         31.380    24.430    87.730   N.4       1 UNK      -0.744
    42  H64        32.250    24.150    88.150   H         1 UNK       0.248
    43  H65        30.630    24.230    88.360   H         1 UNK       0.248
    44  H63        31.410    25.420    87.570   H         1 UNK       0.248
@<TRIPOS>BOND
    1    2    1 2 
    2    2    3 2 
    3    4    2 1 
    4    4    5 1 
    5    4    6 1 
    6    6    7 1 
    7    8    6 am
    8    8    9 2 
    9   10    8 1 
   10   10   11 1 
   11   10   12 1 
   12   12   13 1 
   13   14   12 am
   14   14   15 2 
   15   16   14 1 
   16   16   17 1 
   17   16   25 1 
   18   17   18 1 
   19   18   19 1 
   20   19   20 1 
   21   20   21 1 
   22   21   22 1 
   23   21   23 1 
   24   21   24 1 
   25   25   26 1 
   26   27   25 am
   27   27   28 2 
   28   27   29 1 
   29   29   30 1 
   30   31   30 1 
   31   31   32 1 
   32   31   35 1 
   33   32   33 2 
   34   32   34 2 
   35   35   36 1 
   36   37   35 am
   37   37   38 2 
   38   39   37 1 
   39   39   40 1 
   40   39   41 1 
   41   41   42 1 
   42   41   43 1 
   43   41   44 1 
@<TRIPOS>SUBSTRUCTURE
  1  UNK    1  
